DEBUT()

mesh = LIRE_MAILLAGE(FORMAT='ASTER', UNITE=20)

model = AFFE_MODELE(
    MAILLAGE=mesh,
    AFFE=_F(TOUT='OUI', PHENOMENE='MECANIQUE', MODELISATION='3D'),
)

steel = DEFI_MATERIAU(
    ELAS=_F(E=210000.0, NU=0.30),
)

matfield = AFFE_MATERIAU(
    MAILLAGE=mesh,
    AFFE=_F(TOUT='OUI', MATER=steel),
)

fixed = AFFE_CHAR_MECA(
    MODELE=model,
    DDL_IMPO=_F(GROUP_NO='FIXED', DX=0.0, DY=0.0, DZ=0.0),
)

load = AFFE_CHAR_MECA(
    MODELE=model,
    FORCE_NODALE=_F(GROUP_NO='LOAD', FX=2500.0),
)

result = MECA_STATIQUE(
    MODELE=model,
    CHAM_MATER=matfield,
    EXCIT=(
        _F(CHARGE=fixed),
        _F(CHARGE=load),
    ),
)

result = CALC_CHAMP(
    reuse=result,
    RESULTAT=result,
    CONTRAINTE=('SIGM_ELNO',),
    CRITERES=('SIEQ_ELNO',),
)

probe = POST_RELEVE_T(
    ACTION=_F(
        OPERATION='EXTRACTION',
        INTITULE='LOAD_FACE_DISPLACEMENT',
        RESULTAT=result,
        NOM_CHAM='DEPL',
        GROUP_NO='LOAD',
        NOM_CMP=('DX','DY','DZ'),
        TOUT_ORDRE='OUI',
    ),
)

IMPR_TABLE(TABLE=probe, UNITE=80)
IMPR_RESU(FORMAT='MED', UNITE=81, RESU=_F(RESULTAT=result))

FIN()
