*HEADING
AsterMax generated Code_Aster tetra smoke
*NODE
1, 0.0, 0.0, 0.0
2, 1.0, 0.0, 0.0
3, 0.0, 1.0, 0.0
4, 0.0, 0.0, 1.0
*ELEMENT, TYPE=C3D4, ELSET=VOLUME
1, 1, 2, 3, 4
*NSET, NSET=FIXED
1, 2, 3
*NSET, NSET=LOADN
4
*MATERIAL, NAME=STEEL
*ELASTIC
2.10E11, 0.30
*SOLID SECTION, ELSET=VOLUME, MATERIAL=STEEL
*STEP
*STATIC
*BOUNDARY
FIXED, 1, 3, 0.0
*CLOAD
LOADN, 1, 1000.0
*END STEP
